<?xml version="1.0" encoding="UTF-8"?>

<!-- generated on 2025-06-03 09:48:15 by Eclipse SUMO netedit Version 1.22.0
<neteditConfiguration xmlns:xsi="http://www.w3.org/2001/XMLSchema-instance" xsi:noNamespaceSchemaLocation="http://sumo.dlr.de/xsd/neteditConfiguration.xsd">

    <input>
        <sumo-net-file value="C:\newSumo\project\projectA\simulations\sumoSimulation2\tihan.net.xml"/>
    </input>

    <output>
        <output-file value="C:\newSumo\project\projectA\simulations\sumoSimulation2\tihan.net.xml"/>
    </output>

    <processing>
        <geometry.min-radius.fix.railways value="false"/>
        <geometry.max-grade.fix value="false"/>
        <offset.disable-normalization value="true"/>
        <lefthand value="0"/>
    </processing>

    <junctions>
        <no-turnarounds value="true"/>
        <junctions.corner-detail value="5"/>
        <junctions.limit-turn-speed value="5.50"/>
        <rectangular-lane-cut value="0"/>
    </junctions>

    <pedestrian>
        <walkingareas value="0"/>
    </pedestrian>

</neteditConfiguration>
-->

<net version="1.20" junctionCornerDetail="5" limitTurnSpeed="5.50" xmlns:xsi="http://www.w3.org/2001/XMLSchema-instance" xsi:noNamespaceSchemaLocation="http://sumo.dlr.de/xsd/net_file.xsd">

    <location netOffset="0.00,0.00" convBoundary="-100.08,-138.25,97.17,768.94" origBoundary="-10000000000.00,-10000000000.00,10000000000.00,10000000000.00" projParameter="!"/>

    <edge id=":J1_0" function="internal">
        <lane id=":J1_0_0" index="0" speed="13.89" length="14.40" shape="-104.80,7.21 -104.80,-7.19"/>
        <lane id=":J1_0_1" index="1" speed="13.89" length="14.40" shape="-101.60,7.21 -101.60,-7.19"/>
    </edge>
    <edge id=":J1_2" function="internal">
        <lane id=":J1_2_0" index="0" speed="8.00" length="4.07" shape="-101.60,7.21 -101.05,3.35 -100.96,3.20"/>
    </edge>
    <edge id=":J1_7" function="internal">
        <lane id=":J1_7_0" index="0" speed="8.00" length="10.13" shape="-100.96,3.20 -99.40,0.60 -96.64,-1.04 -92.79,-1.58"/>
    </edge>
    <edge id=":J1_3" function="internal">
        <lane id=":J1_3_0" index="0" speed="6.50" length="9.03" shape="-92.80,1.62 -95.25,1.96 -97.00,3.01 -98.05,4.76 -98.40,7.21"/>
    </edge>
    <edge id=":J1_4" function="internal">
        <lane id=":J1_4_0" index="0" speed="8.01" length="14.20" shape="-92.80,1.62 -96.65,1.06 -99.40,-0.60 -101.05,-3.35 -101.60,-7.19"/>
    </edge>
    <edge id=":J1_5" function="internal">
        <lane id=":J1_5_0" index="0" speed="6.52" length="9.05" shape="-98.40,-7.19 -98.05,-4.74 -97.00,-2.99 -95.24,-1.94 -92.79,-1.58"/>
    </edge>
    <edge id=":J1_6" function="internal">
        <lane id=":J1_6_0" index="0" speed="13.89" length="14.40" shape="-98.40,-7.19 -98.40,7.21"/>
    </edge>
    <edge id=":J11_0" function="internal">
        <lane id=":J11_0_0" index="0" speed="13.89" length="0.30" shape="-104.88,202.13 -104.88,201.78"/>
        <lane id=":J11_0_1" index="1" speed="13.89" length="0.30" shape="-101.68,202.04 -101.68,201.78"/>
    </edge>
    <edge id=":J11_2" function="internal">
        <lane id=":J11_2_0" index="0" speed="13.89" length="0.16" shape="-98.48,201.79 -98.48,201.95"/>
    </edge>
    <edge id=":J12_0" function="internal">
        <lane id=":J12_0_0" index="0" speed="13.89" length="0.31" shape="19.70,203.00 19.66,202.69"/>
    </edge>
    <edge id=":J12_1" function="internal">
        <lane id=":J12_1_0" index="0" speed="13.89" length="0.25" shape="22.85,202.35 22.88,202.60"/>
    </edge>
    <edge id=":J13_0" function="internal">
        <lane id=":J13_0_0" index="0" speed="5.32" length="10.45" shape="-93.62,241.56 -95.54,238.41 -96.92,237.49 -97.74,238.80 -98.02,242.35"/>
    </edge>
    <edge id=":J13_1" function="internal">
        <lane id=":J13_1_0" index="0" speed="13.89" length="28.13" shape="-93.62,241.56 -95.75,236.89 -98.22,230.20 -100.32,222.47 -101.32,214.68"/>
    </edge>
    <edge id=":J13_2" function="internal">
        <lane id=":J13_2_0" index="0" speed="13.89" length="26.95" shape="-98.12,214.58 -97.16,220.09 -95.02,227.65 -92.48,235.11 -90.31,240.30"/>
    </edge>
    <edge id=":J13_3" function="internal">
        <lane id=":J13_3_0" index="0" speed="13.89" length="27.76" shape="-98.12,214.58 -98.02,242.35"/>
    </edge>
    <edge id=":J13_4" function="internal">
        <lane id=":J13_4_0" index="0" speed="13.89" length="27.62" shape="-104.42,242.34 -104.52,214.77"/>
        <lane id=":J13_4_1" index="1" speed="13.89" length="27.62" shape="-101.22,242.34 -101.32,214.68"/>
    </edge>
    <edge id=":J13_6" function="internal">
        <lane id=":J13_6_0" index="0" speed="6.25" length="2.23" shape="-101.22,242.34 -100.48,240.24"/>
    </edge>
    <edge id=":J13_7" function="internal">
        <lane id=":J13_7_0" index="0" speed="6.25" length="12.93" shape="-100.48,240.24 -99.91,238.65 -96.82,236.95 -93.21,237.44 -90.31,240.30"/>
    </edge>
    <edge id=":J14_0" function="internal">
        <lane id=":J14_0_0" index="0" speed="5.37" length="10.08" shape="25.99,245.43 25.13,242.29 23.96,241.21 22.50,242.17 20.73,245.18"/>
    </edge>
    <edge id=":J14_1" function="internal">
        <lane id=":J14_1_0" index="0" speed="13.89" length="26.64" shape="25.99,245.43 21.70,219.13"/>
    </edge>
    <edge id=":J14_2" function="internal">
        <lane id=":J14_2_0" index="0" speed="13.89" length="26.50" shape="24.87,218.74 29.14,244.88"/>
    </edge>
    <edge id=":J14_3" function="internal">
        <lane id=":J14_3_0" index="0" speed="13.89" length="4.04" shape="24.87,218.74 24.81,222.77"/>
    </edge>
    <edge id=":J14_6" function="internal">
        <lane id=":J14_6_0" index="0" speed="13.89" length="22.85" shape="24.81,222.77 24.79,224.33 23.84,232.12 22.37,239.84 20.73,245.18"/>
    </edge>
    <edge id=":J14_4" function="internal">
        <lane id=":J14_4_0" index="0" speed="13.89" length="25.91" shape="17.48,244.59 19.05,239.37 20.55,231.99 21.57,224.55 21.70,219.13"/>
    </edge>
    <edge id=":J14_5" function="internal">
        <lane id=":J14_5_0" index="0" speed="6.48" length="15.78" shape="17.48,244.59 20.22,241.22 23.86,240.10 27.22,241.30 29.14,244.88"/>
    </edge>
    <edge id=":J17_0" function="internal">
        <lane id=":J17_0_0" index="0" speed="13.89" length="15.02" shape="-104.57,348.64 -104.56,333.61"/>
        <lane id=":J17_0_1" index="1" speed="13.89" length="15.02" shape="-101.37,348.63 -101.36,333.61"/>
    </edge>
    <edge id=":J17_2" function="internal">
        <lane id=":J17_2_0" index="0" speed="9.95" length="3.60" shape="-101.37,348.63 -100.80,345.27 -100.71,345.11"/>
    </edge>
    <edge id=":J17_7" function="internal">
        <lane id=":J17_7_0" index="0" speed="9.95" length="11.68" shape="-100.71,345.11 -99.09,342.28 -96.24,339.67 -92.26,337.45"/>
    </edge>
    <edge id=":J17_3" function="internal">
        <lane id=":J17_3_0" index="0" speed="8.73" length="11.60" shape="-90.95,340.37 -94.11,342.10 -96.36,344.05 -97.72,346.23 -98.17,348.63"/>
    </edge>
    <edge id=":J17_4" function="internal">
        <lane id=":J17_4_0" index="0" speed="7.46" length="16.15" shape="-90.95,340.37 -95.51,341.69 -98.76,341.01 -100.71,338.32 -101.36,333.61"/>
    </edge>
    <edge id=":J17_5" function="internal">
        <lane id=":J17_5_0" index="0" speed="5.79" length="9.15" shape="-98.16,333.62 -97.79,336.28 -96.69,337.81 -94.84,338.20 -92.26,337.45"/>
    </edge>
    <edge id=":J17_6" function="internal">
        <lane id=":J17_6_0" index="0" speed="13.89" length="15.02" shape="-98.16,333.62 -98.17,348.63"/>
    </edge>
    <edge id=":J18_0" function="internal">
        <lane id=":J18_0_0" index="0" speed="5.87" length="9.12" shape="32.93,291.12 32.39,288.52 31.18,287.05 29.30,286.68 26.76,287.44"/>
    </edge>
    <edge id=":J18_1" function="internal">
        <lane id=":J18_1_0" index="0" speed="13.89" length="14.92" shape="32.93,291.12 32.65,287.39 32.30,283.68 31.85,279.99 31.28,276.30"/>
    </edge>
    <edge id=":J18_2" function="internal">
        <lane id=":J18_2_0" index="0" speed="13.89" length="15.25" shape="34.44,275.76 35.01,279.50 35.47,283.31 35.84,287.13 36.12,290.90"/>
    </edge>
    <edge id=":J18_3" function="internal">
        <lane id=":J18_3_0" index="0" speed="9.15" length="3.79" shape="34.44,275.76 34.44,279.33 34.36,279.53"/>
    </edge>
    <edge id=":J18_6" function="internal">
        <lane id=":J18_6_0" index="0" speed="9.15" length="11.35" shape="34.36,279.53 33.17,282.47 30.61,285.17 26.76,287.44"/>
    </edge>
    <edge id=":J18_4" function="internal">
        <lane id=":J18_4_0" index="0" speed="7.84" length="10.91" shape="25.44,284.53 28.32,282.86 30.26,280.93 31.25,278.75 31.28,276.30"/>
    </edge>
    <edge id=":J18_5" function="internal">
        <lane id=":J18_5_0" index="0" speed="7.51" length="15.80" shape="25.44,284.53 29.84,283.22 33.09,283.85 35.18,286.41 36.12,290.90"/>
    </edge>
    <edge id=":J2_0" function="internal">
        <lane id=":J2_0_0" index="0" speed="13.89" length="25.36" shape="-104.80,-95.60 -104.79,-120.95"/>
        <lane id=":J2_0_1" index="1" speed="13.89" length="25.36" shape="-101.60,-95.60 -101.59,-120.95"/>
    </edge>
    <edge id=":J2_2" function="internal">
        <lane id=":J2_2_0" index="0" speed="13.89" length="5.62" shape="-101.60,-95.60 -100.89,-101.17"/>
    </edge>
    <edge id=":J2_7" function="internal">
        <lane id=":J2_7_0" index="0" speed="13.89" length="20.46" shape="-100.89,-101.17 -100.65,-103.04 -98.32,-109.95 -95.37,-115.69 -92.57,-119.63"/>
    </edge>
    <edge id=":J2_3" function="internal">
        <lane id=":J2_3_0" index="0" speed="13.89" length="25.11" shape="-89.14,-118.74 -91.92,-114.19 -94.95,-107.59 -97.40,-100.78 -98.40,-95.60"/>
    </edge>
    <edge id=":J2_4" function="internal">
        <lane id=":J2_4_0" index="0" speed="7.75" length="22.22" shape="-89.14,-118.74 -94.59,-113.14 -98.48,-111.65 -100.81,-114.25 -101.59,-120.95"/>
    </edge>
    <edge id=":J2_5" function="internal">
        <lane id=":J2_5_0" index="0" speed="5.50" length="10.15" shape="-98.39,-120.95 -98.03,-117.88 -96.94,-116.64 -95.12,-117.22 -92.57,-119.63"/>
    </edge>
    <edge id=":J2_6" function="internal">
        <lane id=":J2_6_0" index="0" speed="13.89" length="25.35" shape="-98.39,-120.95 -98.40,-95.60"/>
    </edge>
    <edge id=":J21_0" function="internal">
        <lane id=":J21_0_0" index="0" speed="8.78" length="11.62" shape="1.45,298.98 -0.55,300.39 -1.98,302.53 -2.84,305.39 -3.13,308.99"/>
    </edge>
    <edge id=":J21_1" function="internal">
        <lane id=":J21_1_0" index="0" speed="13.89" length="15.01" shape="1.45,298.98 -12.23,305.15"/>
    </edge>
    <edge id=":J21_2" function="internal">
        <lane id=":J21_2_0" index="0" speed="13.89" length="14.99" shape="-13.54,302.23 0.12,296.07"/>
    </edge>
    <edge id=":J21_3" function="internal">
        <lane id=":J21_3_0" index="0" speed="7.46" length="4.75" shape="-13.54,302.23 -8.98,300.91"/>
    </edge>
    <edge id=":J21_6" function="internal">
        <lane id=":J21_6_0" index="0" speed="7.46" length="11.40" shape="-8.98,300.91 -5.73,301.59 -3.78,304.28 -3.13,308.99"/>
    </edge>
    <edge id=":J21_4" function="internal">
        <lane id=":J21_4_0" index="0" speed="5.79" length="9.15" shape="-6.33,308.98 -6.70,306.32 -7.80,304.79 -9.65,304.40 -12.23,305.15"/>
    </edge>
    <edge id=":J21_5" function="internal">
        <lane id=":J21_5_0" index="0" speed="9.99" length="15.27" shape="-6.33,308.98 -5.92,304.44 -4.71,300.77 -2.70,297.98 0.12,296.07"/>
    </edge>
    <edge id=":J22_0" function="internal">
        <lane id=":J22_0_0" index="0" speed="6.65" length="9.26" shape="2.32,456.77 -0.17,457.15 -1.97,458.24 -3.07,460.03 -3.47,462.53"/>
    </edge>
    <edge id=":J22_1" function="internal">
        <lane id=":J22_1_0" index="0" speed="13.89" length="14.52" shape="2.32,456.77 -12.20,456.85"/>
    </edge>
    <edge id=":J22_2" function="internal">
        <lane id=":J22_2_0" index="0" speed="7.98" length="4.12" shape="2.32,456.77 -1.56,456.26 -1.74,456.15"/>
    </edge>
    <edge id=":J22_12" function="internal">
        <lane id=":J22_12_0" index="0" speed="7.98" length="10.12" shape="-1.74,456.15 -4.32,454.63 -5.98,451.88 -6.53,448.01"/>
    </edge>
    <edge id=":J22_3" function="internal">
        <lane id=":J22_3_0" index="0" speed="6.48" length="9.03" shape="-3.33,448.01 -2.98,450.47 -1.93,452.21 -0.18,453.24 2.28,453.57"/>
    </edge>
    <edge id=":J22_4" function="internal">
        <lane id=":J22_4_0" index="0" speed="13.89" length="14.52" shape="-3.33,448.01 -3.47,462.53"/>
    </edge>
    <edge id=":J22_5" function="internal">
        <lane id=":J22_5_0" index="0" speed="8.03" length="4.14" shape="-3.33,448.01 -3.89,451.88 -4.01,452.08"/>
    </edge>
    <edge id=":J22_13" function="internal">
        <lane id=":J22_13_0" index="0" speed="8.03" length="10.14" shape="-4.01,452.08 -5.55,454.64 -8.32,456.30 -12.20,456.85"/>
    </edge>
    <edge id=":J22_6" function="internal">
        <lane id=":J22_6_0" index="0" speed="6.54" length="9.12" shape="-12.20,453.65 -9.72,453.30 -7.95,452.24 -6.89,450.48 -6.53,448.01"/>
    </edge>
    <edge id=":J22_7" function="internal">
        <lane id=":J22_7_0" index="0" speed="13.89" length="14.48" shape="-12.20,453.65 2.28,453.57"/>
    </edge>
    <edge id=":J22_8" function="internal">
        <lane id=":J22_8_0" index="0" speed="7.97" length="4.04" shape="-12.20,453.65 -8.32,454.21 -8.22,454.27"/>
    </edge>
    <edge id=":J22_14" function="internal">
        <lane id=":J22_14_0" index="0" speed="7.97" length="10.22" shape="-8.22,454.27 -5.57,455.87 -3.95,458.65 -3.47,462.53"/>
    </edge>
    <edge id=":J22_9" function="internal">
        <lane id=":J22_9_0" index="0" speed="6.47" length="9.03" shape="-6.67,462.48 -6.97,460.02 -8.00,458.26 -9.74,457.20 -12.20,456.85"/>
    </edge>
    <edge id=":J22_10" function="internal">
        <lane id=":J22_10_0" index="0" speed="13.89" length="14.47" shape="-6.67,462.48 -6.53,448.01"/>
    </edge>
    <edge id=":J22_11" function="internal">
        <lane id=":J22_11_0" index="0" speed="8.12" length="4.03" shape="-6.67,462.48 -6.05,458.62 -5.98,458.51"/>
    </edge>
    <edge id=":J22_15" function="internal">
        <lane id=":J22_15_0" index="0" speed="8.12" length="10.28" shape="-5.98,458.51 -4.35,455.84 -1.57,454.16 2.28,453.57"/>
    </edge>
    <edge id=":J23_0" function="internal">
        <lane id=":J23_0_0" index="0" speed="7.43" length="10.25" shape="54.79,461.35 53.88,459.09 52.27,457.48 49.95,456.53 46.93,456.24"/>
    </edge>
    <edge id=":J23_1" function="internal">
        <lane id=":J23_1_0" index="0" speed="13.89" length="14.61" shape="54.79,461.35 51.45,447.13"/>
    </edge>
    <edge id=":J23_2" function="internal">
        <lane id=":J23_2_0" index="0" speed="13.89" length="14.72" shape="54.55,446.35 57.92,460.68"/>
    </edge>
    <edge id=":J23_3" function="internal">
        <lane id=":J23_3_0" index="0" speed="7.64" length="4.43" shape="54.55,446.35 55.00,450.64 54.95,450.75"/>
    </edge>
    <edge id=":J23_6" function="internal">
        <lane id=":J23_6_0" index="0" speed="7.64" length="10.73" shape="54.95,450.75 53.87,453.71 51.18,455.58 46.93,456.24"/>
    </edge>
    <edge id=":J23_4" function="internal">
        <lane id=":J23_4_0" index="0" speed="6.06" length="9.07" shape="46.89,453.04 49.44,452.65 51.04,451.53 51.72,449.69 51.45,447.13"/>
    </edge>
    <edge id=":J23_5" function="internal">
        <lane id=":J23_5_0" index="0" speed="8.79" length="14.69" shape="46.89,453.04 51.09,453.48 54.33,454.90 56.60,457.30 57.92,460.68"/>
    </edge>
    <edge id=":J24_0" function="internal">
        <lane id=":J24_0_0" index="0" speed="13.89" length="14.41" shape="-104.54,462.48 -104.55,448.07"/>
        <lane id=":J24_0_1" index="1" speed="13.89" length="14.41" shape="-101.34,462.48 -101.35,448.07"/>
    </edge>
    <edge id=":J24_2" function="internal">
        <lane id=":J24_2_0" index="0" speed="8.00" length="4.07" shape="-101.34,462.48 -100.79,458.62 -100.70,458.47"/>
    </edge>
    <edge id=":J24_7" function="internal">
        <lane id=":J24_7_0" index="0" speed="8.00" length="10.12" shape="-100.70,458.47 -99.15,455.87 -96.40,454.22 -92.55,453.67"/>
    </edge>
    <edge id=":J24_3" function="internal">
        <lane id=":J24_3_0" index="0" speed="6.50" length="9.03" shape="-92.54,456.87 -94.99,457.22 -96.74,458.27 -97.79,460.02 -98.14,462.47"/>
    </edge>
    <edge id=":J24_4" function="internal">
        <lane id=":J24_4_0" index="0" speed="8.00" length="14.20" shape="-92.54,456.87 -96.40,456.32 -99.15,454.67 -100.80,451.92 -101.35,448.07"/>
    </edge>
    <edge id=":J24_5" function="internal">
        <lane id=":J24_5_0" index="0" speed="6.51" length="9.04" shape="-98.15,448.07 -97.80,450.52 -96.75,452.27 -95.00,453.32 -92.55,453.67"/>
    </edge>
    <edge id=":J24_6" function="internal">
        <lane id=":J24_6_0" index="0" speed="13.89" length="14.40" shape="-98.15,448.07 -98.14,462.47"/>
    </edge>
    <edge id=":J25_0" function="internal">
        <lane id=":J25_0_0" index="0" speed="13.89" length="10.02" shape="-2.27,582.23 -5.11,581.42 -7.15,581.13 -9.19,581.32 -12.08,581.98"/>
    </edge>
    <edge id=":J25_1" function="internal">
        <lane id=":J25_1_0" index="0" speed="8.17" length="3.41" shape="-2.27,582.23 -5.08,580.95 -5.31,580.73"/>
    </edge>
    <edge id=":J25_6" function="internal">
        <lane id=":J25_6_0" index="0" speed="8.17" length="8.25" shape="-5.31,580.73 -7.07,579.07 -8.24,576.60 -8.59,573.52"/>
    </edge>
    <edge id=":J25_2" function="internal">
        <lane id=":J25_2_0" index="0" speed="6.62" length="7.44" shape="-5.39,573.58 -5.17,575.54 -4.42,577.12 -3.15,578.31 -1.35,579.12"/>
    </edge>
    <edge id=":J25_3" function="internal">
        <lane id=":J25_3_0" index="0" speed="8.10" length="11.66" shape="-5.39,573.58 -5.86,576.64 -7.12,579.06 -9.20,580.84 -12.08,581.98"/>
    </edge>
    <edge id=":J25_4" function="internal">
        <lane id=":J25_4_0" index="0" speed="6.58" length="7.42" shape="-12.85,578.86 -11.02,578.14 -9.70,577.01 -8.89,575.47 -8.59,573.52"/>
    </edge>
    <edge id=":J25_5" function="internal">
        <lane id=":J25_5_0" index="0" speed="13.89" length="11.70" shape="-12.85,578.86 -9.68,578.20 -7.08,578.01 -4.49,578.31 -1.35,579.12"/>
    </edge>
    <edge id=":J26_0" function="internal">
        <lane id=":J26_0_0" index="0" speed="7.39" length="10.10" shape="90.63,627.36 89.70,625.11 88.10,623.52 85.82,622.60 82.88,622.34"/>
    </edge>
    <edge id=":J26_1" function="internal">
        <lane id=":J26_1_0" index="0" speed="13.89" length="14.50" shape="90.63,627.36 87.49,613.20"/>
    </edge>
    <edge id=":J26_2" function="internal">
        <lane id=":J26_2_0" index="0" speed="13.89" length="14.46" shape="90.62,612.53 93.75,626.64"/>
    </edge>
    <edge id=":J26_3" function="internal">
        <lane id=":J26_3_0" index="0" speed="7.70" length="4.22" shape="90.62,612.53 90.91,616.74"/>
    </edge>
    <edge id=":J26_6" function="internal">
        <lane id=":J26_6_0" index="0" speed="7.70" length="10.75" shape="90.91,616.74 89.71,619.77 87.04,621.64 82.88,622.34"/>
    </edge>
    <edge id=":J26_4" function="internal">
        <lane id=":J26_4_0" index="0" speed="6.14" length="9.06" shape="82.80,619.14 85.32,618.72 86.94,617.59 87.66,615.75 87.49,613.20"/>
    </edge>
    <edge id=":J26_5" function="internal">
        <lane id=":J26_5_0" index="0" speed="8.76" length="14.53" shape="82.80,619.14 86.93,619.53 90.13,620.91 92.40,623.28 93.75,626.64"/>
    </edge>
    <edge id=":J27_0" function="internal">
        <lane id=":J27_0_0" index="0" speed="6.49" length="9.03" shape="-92.24,619.69 -94.70,620.02 -96.45,621.06 -97.50,622.81 -97.85,625.26"/>
    </edge>
    <edge id=":J27_1" function="internal">
        <lane id=":J27_1_0" index="0" speed="8.03" length="14.20" shape="-92.24,619.69 -96.10,619.11 -98.85,617.45 -100.51,614.71 -101.06,610.87"/>
    </edge>
    <edge id=":J27_2" function="internal">
        <lane id=":J27_2_0" index="0" speed="6.54" length="9.07" shape="-97.86,610.86 -97.51,613.31 -96.45,615.06 -94.69,616.12 -92.22,616.49"/>
    </edge>
    <edge id=":J27_3" function="internal">
        <lane id=":J27_3_0" index="0" speed="13.89" length="14.40" shape="-97.86,610.86 -97.85,625.26"/>
    </edge>
    <edge id=":J27_4" function="internal">
        <lane id=":J27_4_0" index="0" speed="13.89" length="14.38" shape="-104.25,625.26 -104.26,610.88"/>
        <lane id=":J27_4_1" index="1" speed="13.89" length="14.38" shape="-101.05,625.26 -101.06,610.87"/>
    </edge>
    <edge id=":J27_6" function="internal">
        <lane id=":J27_6_0" index="0" speed="7.99" length="4.06" shape="-101.05,625.26 -100.50,621.40 -100.42,621.26"/>
    </edge>
    <edge id=":J27_7" function="internal">
        <lane id=":J27_7_0" index="0" speed="7.99" length="10.15" shape="-100.42,621.26 -98.84,618.65 -96.08,617.01 -92.22,616.49"/>
    </edge>
    <edge id=":J28_0" function="internal">
        <lane id=":J28_0_0" index="0" speed="6.53" length="8.09" shape="-44.17,624.77 -44.76,622.68 -45.88,621.19 -47.52,620.28 -49.67,619.97"/>
    </edge>
    <edge id=":J28_1" function="internal">
        <lane id=":J28_1_0" index="0" speed="13.89" length="12.71" shape="-44.17,624.77 -44.54,621.40 -44.61,618.44 -44.36,615.49 -43.76,612.15"/>
    </edge>
    <edge id=":J28_2" function="internal">
        <lane id=":J28_2_0" index="0" speed="13.89" length="11.58" shape="-40.62,612.81 -41.21,615.98 -41.45,618.53 -41.36,621.10 -40.96,624.30"/>
    </edge>
    <edge id=":J28_3" function="internal">
        <lane id=":J28_3_0" index="0" speed="8.21" length="3.54" shape="-40.62,612.81 -41.76,615.96 -41.88,616.11"/>
    </edge>
    <edge id=":J28_6" function="internal">
        <lane id=":J28_6_0" index="0" speed="8.21" length="9.11" shape="-41.88,616.11 -43.65,618.21 -46.29,619.54 -49.67,619.97"/>
    </edge>
    <edge id=":J28_4" function="internal">
        <lane id=":J28_4_0" index="0" speed="6.73" length="8.21" shape="-49.65,616.77 -47.44,616.49 -45.72,615.63 -44.50,614.18 -43.76,612.15"/>
    </edge>
    <edge id=":J28_5" function="internal">
        <lane id=":J28_5_0" index="0" speed="8.06" length="12.72" shape="-49.65,616.77 -46.27,617.26 -43.69,618.68 -41.92,621.02 -40.96,624.30"/>
    </edge>
    <edge id=":J29_0" function="internal">
        <lane id=":J29_0_0" index="0" speed="6.78" length="8.15" shape="38.17,623.36 35.99,623.69 34.29,624.59 33.07,626.03 32.35,628.04"/>
    </edge>
    <edge id=":J29_1" function="internal">
        <lane id=":J29_1_0" index="0" speed="8.09" length="12.56" shape="38.17,623.36 34.81,622.98 32.20,621.67 30.34,619.44 29.23,616.27"/>
    </edge>
    <edge id=":J29_2" function="internal">
        <lane id=":J29_2_0" index="0" speed="6.53" length="7.99" shape="32.47,615.61 33.15,617.64 34.31,619.08 35.96,619.92 38.10,620.16"/>
    </edge>
    <edge id=":J29_3" function="internal">
        <lane id=":J29_3_0" index="0" speed="13.89" length="12.53" shape="32.47,615.61 32.98,618.94 33.14,621.84 32.93,624.73 32.35,628.04"/>
    </edge>
    <edge id=":J29_4" function="internal">
        <lane id=":J29_4_0" index="0" speed="13.89" length="11.23" shape="29.26,627.39 29.82,624.27 29.99,621.83 29.80,619.39 29.23,616.27"/>
    </edge>
    <edge id=":J29_5" function="internal">
        <lane id=":J29_5_0" index="0" speed="8.22" length="3.44" shape="29.26,627.39 30.35,624.29 30.45,624.17"/>
    </edge>
    <edge id=":J29_6" function="internal">
        <lane id=":J29_6_0" index="0" speed="8.22" length="9.04" shape="30.45,624.17 32.19,622.05 34.77,620.68 38.10,620.16"/>
    </edge>
    <edge id=":J3_0" function="internal">
        <lane id=":J3_0_0" index="0" speed="13.89" length="29.80" shape="-1.36,-95.81 -2.42,-104.69 -4.51,-112.17 -7.62,-118.26 -11.75,-122.95"/>
    </edge>
    <edge id=":J3_1" function="internal">
        <lane id=":J3_1_0" index="0" speed="13.89" length="29.52" shape="-1.36,-95.81 -1.45,-125.34"/>
    </edge>
    <edge id=":J3_2" function="internal">
        <lane id=":J3_2_0" index="0" speed="13.89" length="29.32" shape="1.75,-125.32 1.83,-96.00"/>
    </edge>
    <edge id=":J3_3" function="internal">
        <lane id=":J3_3_0" index="0" speed="7.74" length="4.35" shape="1.75,-125.32 1.05,-121.03"/>
    </edge>
    <edge id=":J3_6" function="internal">
        <lane id=":J3_6_0" index="0" speed="7.74" length="15.98" shape="1.05,-121.03 0.88,-119.95 -1.67,-117.77 -5.88,-118.77 -11.75,-122.95"/>
    </edge>
    <edge id=":J3_4" function="internal">
        <lane id=":J3_4_0" index="0" speed="5.66" length="10.38" shape="-7.87,-123.73 -5.08,-121.54 -3.08,-121.08 -1.87,-122.34 -1.45,-125.34"/>
    </edge>
    <edge id=":J3_5" function="internal">
        <lane id=":J3_5_0" index="0" speed="13.89" length="29.58" shape="-7.87,-123.73 -4.87,-118.64 -1.77,-110.44 0.70,-101.95 1.83,-96.00"/>
    </edge>
    <edge id=":J30_0" function="internal">
        <lane id=":J30_0_0" index="0" speed="6.53" length="8.20" shape="-6.46,667.42 -6.88,665.25 -7.88,663.65 -9.46,662.61 -11.62,662.14"/>
    </edge>
    <edge id=":J30_1" function="internal">
        <lane id=":J30_1_0" index="0" speed="8.20" length="12.81" shape="-6.46,667.42 -6.18,663.97 -4.95,661.25 -2.75,659.26 0.41,658.00"/>
    </edge>
    <edge id=":J30_2" function="internal">
        <lane id=":J30_2_0" index="0" speed="6.80" length="8.38" shape="1.14,660.99 -0.89,661.85 -2.30,663.18 -3.09,664.98 -3.26,667.25"/>
    </edge>
    <edge id=":J30_3" function="internal">
        <lane id=":J30_3_0" index="0" speed="13.89" length="12.88" shape="1.14,660.99 -2.19,661.77 -5.18,662.19 -8.20,662.30 -11.62,662.14"/>
    </edge>
    <edge id=":J30_4" function="internal">
        <lane id=":J30_4_0" index="0" speed="13.89" length="11.88" shape="-11.37,658.95 -8.11,659.13 -5.43,659.07 -2.78,658.71 0.41,658.00"/>
    </edge>
    <edge id=":J30_5" function="internal">
        <lane id=":J30_5_0" index="0" speed="8.03" length="3.60" shape="-11.37,658.95 -7.98,659.69 -7.87,659.76"/>
    </edge>
    <edge id=":J30_6" function="internal">
        <lane id=":J30_6_0" index="0" speed="8.03" length="9.28" shape="-7.87,659.76 -5.50,661.32 -3.92,663.84 -3.26,667.25"/>
    </edge>
    <edge id=":J31_0" function="internal">
        <lane id=":J31_0_0" index="0" speed="13.89" length="14.55" shape="5.21,725.53 -9.33,725.19"/>
    </edge>
    <edge id=":J31_1" function="internal">
        <lane id=":J31_1_0" index="0" speed="8.28" length="4.24" shape="5.21,725.53 1.45,724.90 1.09,724.68"/>
    </edge>
    <edge id=":J31_6" function="internal">
        <lane id=":J31_6_0" index="0" speed="8.28" length="10.20" shape="1.09,724.68 -1.31,723.16 -3.07,720.32 -3.81,716.38"/>
    </edge>
    <edge id=":J31_2" function="internal">
        <lane id=":J31_2_0" index="0" speed="6.77" length="9.43" shape="-0.62,716.21 -0.13,718.83 1.00,720.70 2.79,721.83 5.22,722.21"/>
    </edge>
    <edge id=":J31_3" function="internal">
        <lane id=":J31_3_0" index="0" speed="7.87" length="14.55" shape="-0.62,716.21 -0.98,720.23 -2.55,723.07 -5.33,724.72 -9.33,725.19"/>
    </edge>
    <edge id=":J31_4" function="internal">
        <lane id=":J31_4_0" index="0" speed="6.31" length="9.03" shape="-9.24,721.89 -6.75,721.64 -5.01,720.63 -4.04,718.88 -3.81,716.38"/>
    </edge>
    <edge id=":J31_5" function="internal">
        <lane id=":J31_5_0" index="0" speed="13.89" length="14.46" shape="-9.24,721.89 5.22,722.21"/>
    </edge>
    <edge id=":J32_0" function="internal">
        <lane id=":J32_0_0" index="0" speed="5.57" length="11.16" shape="-92.59,691.88 -94.96,688.75 -96.65,687.87 -97.68,689.23 -98.04,692.83"/>
    </edge>
    <edge id=":J32_1" function="internal">
        <lane id=":J32_1_0" index="0" speed="13.89" length="34.85" shape="-92.59,691.88 -95.05,686.26 -97.84,677.25 -100.13,667.15 -101.08,658.28"/>
    </edge>
    <edge id=":J32_2" function="internal">
        <lane id=":J32_2_0" index="0" speed="13.89" length="34.18" shape="-97.88,658.28 -96.87,664.94 -94.44,675.03 -91.51,684.97 -88.97,691.18"/>
    </edge>
    <edge id=":J32_3" function="internal">
        <lane id=":J32_3_0" index="0" speed="13.89" length="34.55" shape="-97.88,658.28 -98.04,692.83"/>
    </edge>
    <edge id=":J32_4" function="internal">
        <lane id=":J32_4_0" index="0" speed="13.89" length="34.53" shape="-104.44,692.79 -104.28,658.28"/>
        <lane id=":J32_4_1" index="1" speed="13.89" length="34.53" shape="-101.24,692.81 -101.08,658.28"/>
    </edge>
    <edge id=":J32_6" function="internal">
        <lane id=":J32_6_0" index="0" speed="6.66" length="2.27" shape="-101.24,692.81 -100.48,690.67"/>
    </edge>
    <edge id=":J32_7" function="internal">
        <lane id=":J32_7_0" index="0" speed="6.66" length="14.45" shape="-100.48,690.67 -99.83,688.84 -96.49,687.25 -92.45,688.03 -88.97,691.18"/>
    </edge>
    <edge id=":J33_0" function="internal">
        <lane id=":J33_0_0" index="0" speed="13.89" length="1.44" shape="98.63,647.91 98.72,648.33 98.76,648.62 98.76,648.91 98.73,649.33"/>
    </edge>
    <edge id=":J33_1" function="internal">
        <lane id=":J33_1_0" index="0" speed="13.89" length="0.48" shape="95.55,649.10 95.55,648.96 95.55,648.86 95.54,648.76 95.51,648.63"/>
    </edge>
    <edge id=":J4_0" function="internal">
        <lane id=":J4_0_0" index="0" speed="6.64" length="9.22" shape="4.46,7.11 3.99,4.69 2.82,2.97 0.96,1.96 -1.58,1.65"/>
    </edge>
    <edge id=":J4_1" function="internal">
        <lane id=":J4_1_0" index="0" speed="13.89" length="14.42" shape="4.46,7.11 3.71,-7.29"/>
    </edge>
    <edge id=":J4_2" function="internal">
        <lane id=":J4_2_0" index="0" speed="13.89" length="14.46" shape="6.91,-7.48 7.66,6.96"/>
    </edge>
    <edge id=":J4_3" function="internal">
        <lane id=":J4_3_0" index="0" speed="7.93" length="4.14" shape="6.91,-7.48 6.57,-3.54 6.48,-3.37"/>
    </edge>